Circuit: * C:\Users\Paul S\Documents\GitHub\afanci\circuit\sim\simple-driver1.asc

Error on line 11 : s1 n004 0 n008 n006 int._pwm_sw
	 Unable to find definition of model "int._pwm_sw"
WARNING: Node N006 is floating.

Direct Newton iteration for .op point succeeded.

Date: Mon Aug 28 17:16:45 2023
Total elapsed time: 2.335 seconds.

tnom = 27
temp = 27
method = modified trap
totiter = 346398
traniter = 346386
tranpoints = 149025
accept = 119041
rejected = 29984
matrix size = 15
fillins = 2
solver = Normal
Avg thread counts: 1.0/1.0/1.0/1.0
Matrix Compiler1: 748 bytes object code size  0.5/0.3/[0.2]
Matrix Compiler2: 1.06 KB object code size  0.2/0.5/[0.2]

